/*--------------------------------*- C++ -*----------------------------------*\
| =========                 |                                                 |
| \\      /  F ield         | OpenFOAM: The Open Source CFD Toolbox           |
|  \\    /   O peration     | Version:  2.3.1                                 |
|   \\  /    A nd           | Web:      www.OpenFOAM.org                      |
|    \\/     M anipulation  |                                                 |
\*---------------------------------------------------------------------------*/
FoamFile
{
    version     2.0;
    format      ascii;
    class       volScalarField;
    location    "0";
    object      Ydefault;
}
// * * * * * * * * * * * * * * * * * * * * * * * * * * * * * * * * * * * * * //

dimensions      [1 -3 0 0 0 0 0];

internalField   uniform 0.0;

boundaryField
{
    solution_inlet
    {
        type            fixedValue;
	value 		uniform 0.0;
    }

    outlet
    {
        type            zeroGradient;
    }

    walls
    {
        type            zeroGradient;
    }

    sup_side_inlet
    {
        type            fixedValue;
	value		uniform 0.0;
    }
    inf_side_inlet
    {
        type            fixedValue;
	value		uniform 0.0;
    }
    symmetry_plane
    {
      type		symmetry;
    }
}


// ************************************************************************* //
